//.........................................................//
// Nombre: Franklin Jesus                       //
// Apellidos: Simeon Pucuhuayla             //
// SISTEMA DE PRUEBA DE 135 BARRAS  //
// FIEE - UNI                                        //
//........................................................//

Clear  ! sempre tem isso como a primeira linha antes de definir um novo circuito

Set DefaultBaseFrequency=60

//-------------------------------CIRCUITO-----------------------------------------//
new object=circuit.135_Barras
~ BasekV=13.8  Bus1=b0  pu=1.0  MVASC3=100000   MVASC1 =100000

New Line.L1  Phases=3   Bus1=b0 Bus2=b1 emergamps=10000   Length=1
~ rmatrix = (0.33205 | 0 0.33205 | 0 0 0.33205)
~ xmatrix = (0.76653 | 0 0.76653 | 0 0 0.76653)
New Line.L2  Phases=3   Bus1=b1 Bus2=b2 emergamps=10000   Length=1
~ rmatrix = (0.00188 | 0 0.00188 | 0 0 0.00188)
~ xmatrix = (0.00433 | 0 0.00433 | 0 0 0.00433)
New Line.L3  Phases=3   Bus1=b2 Bus2=b3 emergamps=10000   Length=1
~ rmatrix = (0.22324 | 0 0.22324 | 0 0 0.22324)
~ xmatrix = (0.51535 | 0 0.51535 | 0 0 0.51535)
New Line.L4  Phases=3   Bus1=b3 Bus2=b4 emergamps=10000   Length=1
~ rmatrix = (0.09943 | 0 0.09943 | 0 0 0.09943)
~ xmatrix = (0.22953 | 0 0.22953 | 0 0 0.22953)
New Line.L5  Phases=3   Bus1=b4 Bus2=b5 emergamps=10000   Length=1
~ rmatrix = (0.15571 | 0 0.15571 | 0 0 0.15571)
~ xmatrix = (0.35945 | 0 0.35945 | 0 0 0.35945)
New Line.L6  Phases=3   Bus1=b5 Bus2=b6 emergamps=10000   Length=1
~ rmatrix = (0.16321 | 0 0.16321 | 0 0 0.16321)
~ xmatrix = (0.37677 | 0 0.37677 | 0 0 0.37677)
New Line.L7  Phases=3   Bus1=b6 Bus2=b7 emergamps=10000   Length=1
~ rmatrix = (0.11444 | 0 0.11444 | 0 0 0.11444)
~ xmatrix = (0.26417 | 0 0.26417 | 0 0 0.26417)
New Line.L8  Phases=3   Bus1=b6 Bus2=b9 emergamps=10000   Length=1
~ rmatrix = (0.05675 | 0 0.05675 | 0 0 0.05675)
~ xmatrix = (0.05666 | 0 0.05666 | 0 0 0.05666)
New Line.L9  Phases=3   Bus1=b9 Bus2=b10 emergamps=10000   Length=1
~ rmatrix = (0.52124 | 0 0.52124 | 0 0 0.52124)
~ xmatrix = (0.27418 | 0 0.27418 | 0 0 0.27418)
New Line.L10  Phases=3   Bus1=b9 Bus2=b12 emergamps=10000   Length=1
~ rmatrix = (0.10877 | 0 0.10877 | 0 0 0.10877)
~ xmatrix = (0.1086 | 0 0.1086 | 0 0 0.1086)
New Line.L11  Phases=3   Bus1=b12 Bus2=b13 emergamps=10000   Length=1
~ rmatrix = (0.39803 | 0 0.39803 | 0 0 0.39803)
~ xmatrix = (0.20937 | 0 0.20937 | 0 0 0.20937)
New Line.L12  Phases=3   Bus1=b12 Bus2=b15 emergamps=10000   Length=1
~ rmatrix = (0.91744 | 0 0.91744 | 0 0 0.91744)
~ xmatrix = (0.31469 | 0 0.31469 | 0 0 0.31469)
New Line.L13  Phases=3   Bus1=b12 Bus2=b17 emergamps=10000   Length=1
~ rmatrix = (0.11823 | 0 0.11823 | 0 0 0.11823)
~ xmatrix = (0.11805 | 0 0.11805 | 0 0 0.11805)
New Line.L14  Phases=3   Bus1=b17 Bus2=b18 emergamps=10000   Length=1
~ rmatrix = (0.50228 | 0 0.50228 | 0 0 0.50228)
~ xmatrix = (0.26421 | 0 0.26421 | 0 0 0.26421)
New Line.L15  Phases=3   Bus1=b17 Bus2=b20 emergamps=10000   Length=1
~ rmatrix = (0.05675 | 0 0.05675 | 0 0 0.05675)
~ xmatrix = (0.05666 | 0 0.05666 | 0 0 0.05666)
New Line.L16  Phases=3   Bus1=b20 Bus2=b21 emergamps=10000   Length=1
~ rmatrix = (0.29379 | 0 0.29379 | 0 0 0.29379)
~ xmatrix = (0.15454 | 0 0.15454 | 0 0 0.15454)
New Line.L17  Phases=3   Bus1=b0 Bus2=b24 emergamps=10000   Length=1
~ rmatrix = (0.33205 | 0 0.33205 | 0 0 0.33205)
~ xmatrix = (0.76653 | 0 0.76653 | 0 0 0.76653)
New Line.L18  Phases=3   Bus1=b24 Bus2=b25 emergamps=10000   Length=1
~ rmatrix = (0.00188 | 0 0.00188 | 0 0 0.00188)
~ xmatrix = (0.00433 | 0 0.00433 | 0 0 0.00433)
New Line.L19  Phases=3   Bus1=b25 Bus2=b26 emergamps=10000   Length=1
~ rmatrix = (0.22324 | 0 0.22324 | 0 0 0.22324)
~ xmatrix = (0.51535 | 0 0.51535 | 0 0 0.51535)
New Line.L20  Phases=3   Bus1=b26 Bus2=b27 emergamps=10000   Length=1
~ rmatrix = (0.10881 | 0 0.10881 | 0 0 0.10881)
~ xmatrix = (0.25118 | 0 0.25118 | 0 0 0.25118)
New Line.L21  Phases=3   Bus1=b27 Bus2=b28 emergamps=10000   Length=1
~ rmatrix = (0.71078 | 0 0.71078 | 0 0 0.71078)
~ xmatrix = (0.37388 | 0 0.37388 | 0 0 0.37388)
New Line.L22  Phases=3   Bus1=b27 Bus2=b29 emergamps=10000   Length=1
~ rmatrix = (0.18197 | 0 0.18197 | 0 0 0.18197)
~ xmatrix = (0.42008 | 0 0.42008 | 0 0 0.42008)
New Line.L23  Phases=3   Bus1=b29 Bus2=b30 emergamps=10000   Length=1
~ rmatrix = (0.30326 | 0 0.30326 | 0 0 0.30326)
~ xmatrix = (0.15952 | 0 0.15952 | 0 0 0.15952)
New Line.L24  Phases=3   Bus1=b29 Bus2=b32 emergamps=10000   Length=1
~ rmatrix = (0.02439 | 0 0.02439 | 0 0 0.02439)
~ xmatrix = (0.0563 | 0 0.0563 | 0 0 0.0563)
New Line.L25  Phases=3   Bus1=b32 Bus2=b33 emergamps=10000   Length=1
~ rmatrix = (0.04502 | 0 0.04502 | 0 0 0.04502)
~ xmatrix = (0.10394 | 0 0.10394 | 0 0 0.10394)
New Line.L26  Phases=3   Bus1=b33 Bus2=b34 emergamps=10000   Length=1
~ rmatrix = (0.01876 | 0 0.01876 | 0 0 0.01876)
~ xmatrix = (0.04331 | 0 0.04331 | 0 0 0.04331)
New Line.L27  Phases=3   Bus1=b34 Bus2=b35 emergamps=10000   Length=1
~ rmatrix = (0.11823 | 0 0.11823 | 0 0 0.11823)
~ xmatrix = (0.11805 | 0 0.11805 | 0 0 0.11805)
New Line.L28  Phases=3   Bus1=b35 Bus2=b36 emergamps=10000   Length=1
~ rmatrix = (0.02365 | 0 0.02365 | 0 0 0.02365)
~ xmatrix = (0.02361 | 0 0.02361 | 0 0 0.02361)
New Line.L29  Phases=3   Bus1=b36 Bus2=b37 emergamps=10000   Length=1
~ rmatrix = (0.18954 | 0 0.18954 | 0 0 0.18954)
~ xmatrix = (0.0997 | 0 0.0997 | 0 0 0.0997)
New Line.L30  Phases=3   Bus1=b37 Bus2=b38 emergamps=10000   Length=1
~ rmatrix = (0.39803 | 0 0.39803 | 0 0 0.39803)
~ xmatrix = (0.20937 | 0 0.20937 | 0 0 0.20937)
New Line.L31  Phases=3   Bus1=b36 Bus2=b39 emergamps=10000   Length=1
~ rmatrix = (0.05675 | 0 0.05675 | 0 0 0.05675)
~ xmatrix = (0.05666 | 0 0.05666 | 0 0 0.05666)
New Line.L32  Phases=3   Bus1=b39 Bus2=b40 emergamps=10000   Length=1
~ rmatrix = (0.09477 | 0 0.09477 | 0 0 0.09477)
~ xmatrix = (0.04985 | 0 0.04985 | 0 0 0.04985)
New Line.L33  Phases=3   Bus1=b40 Bus2=b41 emergamps=10000   Length=1
~ rmatrix = (0.41699 | 0 0.41699 | 0 0 0.41699)
~ xmatrix = (0.21934 | 0 0.21934 | 0 0 0.21934)
New Line.L34  Phases=3   Bus1=b41 Bus2=b42 emergamps=10000   Length=1
~ rmatrix = (0.11372 | 0 0.11372 | 0 0 0.11372)
~ xmatrix = (0.05982 | 0 0.05982 | 0 0 0.05982)
New Line.L35  Phases=3   Bus1=b39 Bus2=b43 emergamps=10000   Length=1
~ rmatrix = (0.07566 | 0 0.07566 | 0 0 0.07566)
~ xmatrix = (0.07555 | 0 0.07555 | 0 0 0.07555)
New Line.L36  Phases=3   Bus1=b43 Bus2=b44 emergamps=10000   Length=1
~ rmatrix = (0.3696 | 0 0.3696 | 0 0 0.3696)
~ xmatrix = (0.19442 | 0 0.19442 | 0 0 0.19442)
New Line.L37  Phases=3   Bus1=b44 Bus2=b45 emergamps=10000   Length=1
~ rmatrix = (0.26536 | 0 0.26536 | 0 0 0.26536)
~ xmatrix = (0.13958 | 0 0.13958 | 0 0 0.13958)
New Line.L38  Phases=3   Bus1=b43 Bus2=b46 emergamps=10000   Length=1
~ rmatrix = (0.05675 | 0 0.05675 | 0 0 0.05675)
~ xmatrix = (0.05666 | 0 0.05666 | 0 0 0.05666)
New Line.L39  Phases=3   Bus1=b0 Bus2=b48 emergamps=10000   Length=1
~ rmatrix = (0.33205 | 0 0.33205 | 0 0 0.33205)
~ xmatrix = (0.76653 | 0 0.76653 | 0 0 0.76653)
New Line.L40  Phases=3   Bus1=b48 Bus2=b49 emergamps=10000   Length=1
~ rmatrix = (0.11819 | 0 0.11819 | 0 0 0.11819)
~ xmatrix = (0.27283 | 0 0.27283 | 0 0 0.27283)
New Line.L41  Phases=3   Bus1=b49 Bus2=b50 emergamps=10000   Length=1
~ rmatrix = (2.96288 | 0 2.96288 | 0 0 2.96288)
~ xmatrix = (1.01628 | 0 1.01628 | 0 0 1.01628)
New Line.L42  Phases=3   Bus1=b49 Bus2=b51 emergamps=10000   Length=1
~ rmatrix = (0.00188 | 0 0.00188 | 0 0 0.00188)
~ xmatrix = (0.00433 | 0 0.00433 | 0 0 0.00433)
New Line.L43  Phases=3   Bus1=b51 Bus2=b52 emergamps=10000   Length=1
~ rmatrix = (0.06941 | 0 0.06941 | 0 0 0.06941)
~ xmatrix = (0.16024 | 0 0.16024 | 0 0 0.16024)
New Line.L44  Phases=3   Bus1=b52 Bus2=b53 emergamps=10000   Length=1
~ rmatrix = (0.81502 | 0 0.81502 | 0 0 0.81502)
~ xmatrix = (0.42872 | 0 0.42872 | 0 0 0.42872)
New Line.L45  Phases=3   Bus1=b52 Bus2=b54 emergamps=10000   Length=1
~ rmatrix = (0.06378 | 0 0.06378 | 0 0 0.06378)
~ xmatrix = (0.14724 | 0 0.14724 | 0 0 0.14724)
New Line.L46  Phases=3   Bus1=b54 Bus2=b55 emergamps=10000   Length=1
~ rmatrix = (0.13132 | 0 0.13132 | 0 0 0.13132)
~ xmatrix = (0.30315 | 0 0.30315 | 0 0 0.30315)
New Line.L47  Phases=3   Bus1=b55 Bus2=b56 emergamps=10000   Length=1
~ rmatrix = (0.06191 | 0 0.06191 | 0 0 0.06191)
~ xmatrix = (0.14291 | 0 0.14291 | 0 0 0.14291)
New Line.L48  Phases=3   Bus1=b56 Bus2=b57 emergamps=10000   Length=1
~ rmatrix = (0.11444 | 0 0.11444 | 0 0 0.11444)
~ xmatrix = (0.26417 | 0 0.26417 | 0 0 0.26417)
New Line.L49  Phases=3   Bus1=b57 Bus2=b58 emergamps=10000   Length=1
~ rmatrix = (0.28374 | 0 0.28374 | 0 0 0.28374)
~ xmatrix = (0.28331 | 0 0.28331 | 0 0 0.28331)
New Line.L50  Phases=3   Bus1=b58 Bus2=b59 emergamps=10000   Length=1
~ rmatrix = (0.28374 | 0 0.28374 | 0 0 0.28374)
~ xmatrix = (0.28331 | 0 0.28331 | 0 0 0.28331)
New Line.L51  Phases=3   Bus1=b57 Bus2=b61 emergamps=10000   Length=1
~ rmatrix = (0.04502 | 0 0.04502 | 0 0 0.04502)
~ xmatrix = (0.10394 | 0 0.10394 | 0 0 0.10394)
New Line.L52  Phases=3   Bus1=b61 Bus2=b62 emergamps=10000   Length=1
~ rmatrix = (0.02626 | 0 0.02626 | 0 0 0.02626)
~ xmatrix = (0.06063 | 0 0.06063 | 0 0 0.06063)
New Line.L53  Phases=3   Bus1=b62 Bus2=b63 emergamps=10000   Length=1
~ rmatrix = (0.06003 | 0 0.06003 | 0 0 0.06003)
~ xmatrix = (0.13858 | 0 0.13858 | 0 0 0.13858)
New Line.L54  Phases=3   Bus1=b63 Bus2=b64 emergamps=10000   Length=1
~ rmatrix = (0.03002 | 0 0.03002 | 0 0 0.03002)
~ xmatrix = (0.06929 | 0 0.06929 | 0 0 0.06929)
New Line.L55  Phases=3   Bus1=b64 Bus2=b65 emergamps=10000   Length=1
~ rmatrix = (0.02064 | 0 0.02064 | 0 0 0.02064)
~ xmatrix = (0.04764 | 0 0.04764 | 0 0 0.04764)
New Line.L56  Phases=3   Bus1=b62 Bus2=b67 emergamps=10000   Length=1
~ rmatrix = (0.10881 | 0 0.10881 | 0 0 0.10881)
~ xmatrix = (0.25118 | 0 0.25118 | 0 0 0.25118)
New Line.L57  Phases=3   Bus1=b67 Bus2=b68 emergamps=10000   Length=1
~ rmatrix = (0.25588 | 0 0.25588 | 0 0 0.25588)
~ xmatrix = (0.1346 | 0 0.1346 | 0 0 0.1346)
New Line.L58  Phases=3   Bus1=b68 Bus2=b69 emergamps=10000   Length=1
~ rmatrix = (0.41699 | 0 0.41699 | 0 0 0.41699)
~ xmatrix = (0.21934 | 0 0.21934 | 0 0 0.21934)
New Line.L59  Phases=3   Bus1=b69 Bus2=b70 emergamps=10000   Length=1
~ rmatrix = (0.50228 | 0 0.50228 | 0 0 0.50228)
~ xmatrix = (0.26421 | 0 0.26421 | 0 0 0.26421)
New Line.L60  Phases=3   Bus1=b70 Bus2=b71 emergamps=10000   Length=1
~ rmatrix = (0.3317 | 0 0.3317 | 0 0 0.3317)
~ xmatrix = (0.17448 | 0 0.17448 | 0 0 0.17448)
New Line.L61  Phases=3   Bus1=b71 Bus2=b72 emergamps=10000   Length=1
~ rmatrix = (0.20849 | 0 0.20849 | 0 0 0.20849)
~ xmatrix = (0.10967 | 0 0.10967 | 0 0 0.10967)
New Line.L62  Phases=3   Bus1=b56 Bus2=b73 emergamps=10000   Length=1
~ rmatrix = (0.13882 | 0 0.13882 | 0 0 0.13882)
~ xmatrix = (0.32047 | 0 0.32047 | 0 0 0.32047)
New Line.L63  Phases=3   Bus1=b0 Bus2=b75 emergamps=10000   Length=1
~ rmatrix = (0.0075 | 0 0.0075 | 0 0 0.0075)
~ xmatrix = (0.01732 | 0 0.01732 | 0 0 0.01732)
New Line.L64  Phases=3   Bus1=b75 Bus2=b76 emergamps=10000   Length=1
~ rmatrix = (0.27014 | 0 0.27014 | 0 0 0.27014)
~ xmatrix = (0.62362 | 0 0.62362 | 0 0 0.62362)
New Line.L65  Phases=3   Bus1=b76 Bus2=b77 emergamps=10000   Length=1
~ rmatrix = (0.3827 | 0 0.3827 | 0 0 0.3827)
~ xmatrix = (0.88346 | 0 0.88346 | 0 0 0.88346)
New Line.L66  Phases=3   Bus1=b77 Bus2=b78 emergamps=10000   Length=1
~ rmatrix = (0.33018 | 0 0.33018 | 0 0 0.33018)
~ xmatrix = (0.7622 | 0 0.7622 | 0 0 0.7622)
New Line.L67  Phases=3   Bus1=b78 Bus2=b80 emergamps=10000   Length=1
~ rmatrix = (0.3283 | 0 0.3283 | 0 0 0.3283)
~ xmatrix = (0.75787 | 0 0.75787 | 0 0 0.75787)
New Line.L68  Phases=3   Bus1=b80 Bus2=b81 emergamps=10000   Length=1
~ rmatrix = (0.17072 | 0 0.17072 | 0 0 0.17072)
~ xmatrix = (0.39409 | 0 0.39409 | 0 0 0.39409)
New Line.L69  Phases=3   Bus1=b81 Bus2=b82 emergamps=10000   Length=1
~ rmatrix = (0.55914 | 0 0.55914 | 0 0 0.55914)
~ xmatrix = (0.29412 | 0 0.29412 | 0 0 0.29412)
New Line.L70  Phases=3   Bus1=b81 Bus2=b83 emergamps=10000   Length=1
~ rmatrix = (0.05816 | 0 0.05816 | 0 0 0.05816)
~ xmatrix = (0.13425 | 0 0.13425 | 0 0 0.13425)
New Line.L71  Phases=3   Bus1=b83 Bus2=b84 emergamps=10000   Length=1
~ rmatrix = (0.7013 | 0 0.7013 | 0 0 0.7013)
~ xmatrix = (0.3689 | 0 0.3689 | 0 0 0.3689)
New Line.L72  Phases=3   Bus1=b84 Bus2=b85 emergamps=10000   Length=1
~ rmatrix = (1.02352 | 0 1.02352 | 0 0 1.02352)
~ xmatrix = (0.53839 | 0 0.53839 | 0 0 0.53839)
New Line.L73  Phases=3   Bus1=b83 Bus2=b86 emergamps=10000   Length=1
~ rmatrix = (0.06754 | 0 0.06754 | 0 0 0.06754)
~ xmatrix = (0.15591 | 0 0.15591 | 0 0 0.15591)
New Line.L74  Phases=3   Bus1=b86 Bus2=b87 emergamps=10000   Length=1
~ rmatrix = (1.32352 | 0 1.32352 | 0 0 1.32352)
~ xmatrix = (0.45397 | 0 0.45397 | 0 0 0.45397)
New Line.L75  Phases=3   Bus1=b0 Bus2=b121 emergamps=10000   Length=1
~ rmatrix = (0.01126 | 0 0.01126 | 0 0 0.01126)
~ xmatrix = (0.02598 | 0 0.02598 | 0 0 0.02598)
New Line.L76  Phases=3   Bus1=b121 Bus2=b122 emergamps=10000   Length=1
~ rmatrix = (0.72976 | 0 0.72976 | 0 0 0.72976)
~ xmatrix = (1.68464 | 0 1.68464 | 0 0 1.68464)
New Line.L77  Phases=3   Bus1=b122 Bus2=b123 emergamps=10000   Length=1
~ rmatrix = (0.22512 | 0 0.22512 | 0 0 0.22512)
~ xmatrix = (0.51968 | 0 0.51968 | 0 0 0.51968)
New Line.L78  Phases=3   Bus1=b123 Bus2=b124 emergamps=10000   Length=1
~ rmatrix = (0.20824 | 0 0.20824 | 0 0 0.20824)
~ xmatrix = (0.48071 | 0 0.48071 | 0 0 0.48071)
New Line.L79  Phases=3   Bus1=b124 Bus2=b125 emergamps=10000   Length=1
~ rmatrix = (0.0469 | 0 0.0469 | 0 0 0.0469)
~ xmatrix = (0.10827 | 0 0.10827 | 0 0 0.10827)
New Line.L80  Phases=3   Bus1=b125 Bus2=b127 emergamps=10000   Length=1
~ rmatrix = (0.6195 | 0 0.6195 | 0 0 0.6195)
~ xmatrix = (0.61857 | 0 0.61857 | 0 0 0.61857)
New Line.L81  Phases=3   Bus1=b127 Bus2=b128 emergamps=10000   Length=1
~ rmatrix = (0.34049 | 0 0.34049 | 0 0 0.34049)
~ xmatrix = (0.33998 | 0 0.33998 | 0 0 0.33998)
New Line.L82  Phases=3   Bus1=b128 Bus2=b129 emergamps=10000   Length=1
~ rmatrix = (0.56862 | 0 0.56862 | 0 0 0.56862)
~ xmatrix = (0.29911 | 0 0.29911 | 0 0 0.29911)
New Line.L83  Phases=3   Bus1=b128 Bus2=b130 emergamps=10000   Length=1
~ rmatrix = (0.10877 | 0 0.10877 | 0 0 0.10877)
~ xmatrix = (0.1086 | 0 0.1086 | 0 0 0.1086)
New Line.L84  Phases=3   Bus1=b130 Bus2=b131 emergamps=10000   Length=1
~ rmatrix = (0.56862 | 0 0.56862 | 0 0 0.56862)
~ xmatrix = (0.29911 | 0 0.29911 | 0 0 0.29911)
New Line.L85  Phases=3   Bus1=b0 Bus2=b133 emergamps=10000   Length=1
~ rmatrix = (0.01126 | 0 0.01126 | 0 0 0.01126)
~ xmatrix = (0.02598 | 0 0.02598 | 0 0 0.02598)
New Line.L86  Phases=3   Bus1=b133 Bus2=b134 emergamps=10000   Length=1
~ rmatrix = (0.41835 | 0 0.41835 | 0 0 0.41835)
~ xmatrix = (0.96575 | 0 0.96575 | 0 0 0.96575)
New Line.L87  Phases=3   Bus1=b134 Bus2=b135 emergamps=10000   Length=1
~ rmatrix = (0.10499 | 0 0.10499 | 0 0 0.10499)
~ xmatrix = (0.13641 | 0 0.13641 | 0 0 0.13641)
New Line.L88  Phases=3   Bus1=b134 Bus2=b136 emergamps=10000   Length=1
~ rmatrix = (0.43898 | 0 0.43898 | 0 0 0.43898)
~ xmatrix = (1.01338 | 0 1.01338 | 0 0 1.01338)
New Line.L89  Phases=3   Bus1=b136 Bus2=b137 emergamps=10000   Length=1
~ rmatrix = (0.0752 | 0 0.0752 | 0 0 0.0752)
~ xmatrix = (0.02579 | 0 0.02579 | 0 0 0.02579)
New Line.L90  Phases=3   Bus1=b137 Bus2=b138 emergamps=10000   Length=1
~ rmatrix = (0.07692 | 0 0.07692 | 0 0 0.07692)
~ xmatrix = (0.17756 | 0 0.17756 | 0 0 0.17756)
New Line.L91  Phases=3   Bus1=b138 Bus2=b139 emergamps=10000   Length=1
~ rmatrix = (0.33205 | 0 0.33205 | 0 0 0.33205)
~ xmatrix = (0.76653 | 0 0.76653 | 0 0 0.76653)
New Line.L92  Phases=3   Bus1=b139 Bus2=b141 emergamps=10000   Length=1
~ rmatrix = (0.08442 | 0 0.08442 | 0 0 0.08442)
~ xmatrix = (0.19488 | 0 0.19488 | 0 0 0.19488)
New Line.L93  Phases=3   Bus1=b141 Bus2=b142 emergamps=10000   Length=1
~ rmatrix = (0.1332 | 0 0.1332 | 0 0 0.1332)
~ xmatrix = (0.30748 | 0 0.30748 | 0 0 0.30748)
New Line.L94  Phases=3   Bus1=b142 Bus2=b143 emergamps=10000   Length=1
~ rmatrix = (0.2932 | 0 0.2932 | 0 0 0.2932)
~ xmatrix = (0.29276 | 0 0.29276 | 0 0 0.29276)
New Line.L95  Phases=3   Bus1=b143 Bus2=b144 emergamps=10000   Length=1
~ rmatrix = (0.21753 | 0 0.21753 | 0 0 0.21753)
~ xmatrix = (0.21721 | 0 0.21721 | 0 0 0.21721)
New Line.L96  Phases=3   Bus1=b144 Bus2=b145 emergamps=10000   Length=1
~ rmatrix = (0.26482 | 0 0.26482 | 0 0 0.26482)
~ xmatrix = (0.26443 | 0 0.26443 | 0 0 0.26443)
New Line.L97  Phases=3   Bus1=b142 Bus2=b146 emergamps=10000   Length=1
~ rmatrix = (0.10318 | 0 0.10318 | 0 0 0.10318)
~ xmatrix = (0.23819 | 0 0.23819 | 0 0 0.23819)
New Line.L98  Phases=3   Bus1=b146 Bus2=b147 emergamps=10000   Length=1
~ rmatrix = (0.13507 | 0 0.13507 | 0 0 0.13507)
~ xmatrix = (0.31181 | 0 0.31181 | 0 0 0.31181)
New Line.L99  Phases=3   Bus1=b0 Bus2=b148 emergamps=10000   Length=1
~ rmatrix = (0.00938 | 0 0.00938 | 0 0 0.00938)
~ xmatrix = (0.02165 | 0 0.02165 | 0 0 0.02165)
New Line.L100  Phases=3   Bus1=b148 Bus2=b149 emergamps=10000   Length=1
~ rmatrix = (0.16884 | 0 0.16884 | 0 0 0.16884)
~ xmatrix = (0.38976 | 0 0.38976 | 0 0 0.38976)
New Line.L101  Phases=3   Bus1=b149 Bus2=b150 emergamps=10000   Length=1
~ rmatrix = (0.11819 | 0 0.11819 | 0 0 0.11819)
~ xmatrix = (0.27283 | 0 0.27283 | 0 0 0.27283)
New Line.L102  Phases=3   Bus1=b150 Bus2=b152 emergamps=10000   Length=1
~ rmatrix = (2.28608 | 0 2.28608 | 0 0 2.28608)
~ xmatrix = (0.78414 | 0 0.78414 | 0 0 0.78414)
New Line.L103  Phases=3   Bus1=b150 Bus2=b153 emergamps=10000   Length=1
~ rmatrix = (0.45587 | 0 0.45587 | 0 0 0.45587)
~ xmatrix = (1.05236 | 0 1.05236 | 0 0 1.05236)
New Line.L104  Phases=3   Bus1=b153 Bus2=b154 emergamps=10000   Length=1
~ rmatrix = (0.696 | 0 0.696 | 0 0 0.696)
~ xmatrix = (1.60669 | 0 1.60669 | 0 0 1.60669)
New Line.L105  Phases=3   Bus1=b154 Bus2=b155 emergamps=10000   Length=1
~ rmatrix = (0.45774 | 0 0.45774 | 0 0 0.45774)
~ xmatrix = (1.05669 | 0 1.05669 | 0 0 1.05669)
New Line.L106  Phases=3   Bus1=b155 Bus2=b156 emergamps=10000   Length=1
~ rmatrix = (0.20298 | 0 0.20298 | 0 0 0.20298)
~ xmatrix = (0.26373 | 0 0.26373 | 0 0 0.26373)
New Line.L107  Phases=3   Bus1=b156 Bus2=b157 emergamps=10000   Length=1
~ rmatrix = (0.21348 | 0 0.21348 | 0 0 0.21348)
~ xmatrix = (0.27737 | 0 0.27737 | 0 0 0.27737)
New Line.L108  Phases=3   Bus1=b157 Bus2=b158 emergamps=10000   Length=1
~ rmatrix = (0.54967 | 0 0.54967 | 0 0 0.54967)
~ xmatrix = (0.28914 | 0 0.28914 | 0 0 0.28914)
New Line.L109  Phases=3   Bus1=b158 Bus2=b159 emergamps=10000   Length=1
~ rmatrix = (0.54019 | 0 0.54019 | 0 0 0.54019)
~ xmatrix = (0.28415 | 0 0.28415 | 0 0 0.28415)
New Line.L110  Phases=3   Bus1=b157 Bus2=b160 emergamps=10000   Length=1
~ rmatrix = (0.0455 | 0 0.0455 | 0 0 0.0455)
~ xmatrix = (0.05911 | 0 0.05911 | 0 0 0.05911)
New Line.L111  Phases=3   Bus1=b160 Bus2=b162 emergamps=10000   Length=1
~ rmatrix = (0.47385 | 0 0.47385 | 0 0 0.47385)
~ xmatrix = (0.24926 | 0 0.24926 | 0 0 0.24926)
New Line.L112  Phases=3   Bus1=b162 Bus2=b163 emergamps=10000   Length=1
~ rmatrix = (0.86241 | 0 0.86241 | 0 0 0.86241)
~ xmatrix = (0.45364 | 0 0.45364 | 0 0 0.45364)
New Line.L113  Phases=3   Bus1=b163 Bus2=b164 emergamps=10000   Length=1
~ rmatrix = (0.56862 | 0 0.56862 | 0 0 0.56862)
~ xmatrix = (0.29911 | 0 0.29911 | 0 0 0.29911)
New Line.L114  Phases=3   Bus1=b158 Bus2=b200 emergamps=10000   Length=1
~ rmatrix = (0.77711 | 0 0.77711 | 0 0 0.77711)
~ xmatrix = (0.40878 | 0 0.40878 | 0 0 0.40878)
New Line.L115  Phases=3   Bus1=b200 Bus2=b201 emergamps=10000   Length=1
~ rmatrix = (1.08038 | 0 1.08038 | 0 0 1.08038)
~ xmatrix = (0.5683 | 0 0.5683 | 0 0 0.5683)
New Line.L116  Phases=3   Bus1=b159 Bus2=b202 emergamps=10000   Length=1
~ rmatrix = (1.09933 | 0 1.09933 | 0 0 1.09933)
~ xmatrix = (0.57827 | 0 0.57827 | 0 0 0.57827)
New Line.L117  Phases=3   Bus1=b202 Bus2=b203 emergamps=10000   Length=1
~ rmatrix = (0.47385 | 0 0.47385 | 0 0 0.47385)
~ xmatrix = (0.24926 | 0 0.24926 | 0 0 0.24926)
New Line.L118  Phases=3   Bus1=b154 Bus2=b204 emergamps=10000   Length=1
~ rmatrix = (0.32267 | 0 0.32267 | 0 0 0.32267)
~ xmatrix = (0.74488 | 0 0.74488 | 0 0 0.74488)
New Line.L119  Phases=3   Bus1=b204 Bus2=b205 emergamps=10000   Length=1
~ rmatrix = (0.14633 | 0 0.14633 | 0 0 0.14633)
~ xmatrix = (0.33779 | 0 0.33779 | 0 0 0.33779)
New Line.L120  Phases=3   Bus1=b205 Bus2=b206 emergamps=10000   Length=1
~ rmatrix = (0.12382 | 0 0.12382 | 0 0 0.12382)
~ xmatrix = (0.28583 | 0 0.28583 | 0 0 0.28583)
New Line.L121  Phases=3   Bus1=b0 Bus2=b207 emergamps=10000   Length=1
~ rmatrix = (0.01126 | 0 0.01126 | 0 0 0.01126)
~ xmatrix = (0.02598 | 0 0.02598 | 0 0 0.02598)
New Line.L122  Phases=3   Bus1=b207 Bus2=b208 emergamps=10000   Length=1
~ rmatrix = (0.6491 | 0 0.6491 | 0 0 0.6491)
~ xmatrix = (1.49842 | 0 1.49842 | 0 0 1.49842)
New Line.L123  Phases=3   Bus1=b208 Bus2=b209 emergamps=10000   Length=1
~ rmatrix = (0.04502 | 0 0.04502 | 0 0 0.04502)
~ xmatrix = (0.10394 | 0 0.10394 | 0 0 0.10394)
New Line.L124  Phases=3   Bus1=b209 Bus2=b210 emergamps=10000   Length=1
~ rmatrix = (0.5264 | 0 0.5264 | 0 0 0.5264)
~ xmatrix = (0.18056 | 0 0.18056 | 0 0 0.18056)
New Line.L125  Phases=3   Bus1=b209 Bus2=b211 emergamps=10000   Length=1
~ rmatrix = (0.02064 | 0 0.02064 | 0 0 0.02064)
~ xmatrix = (0.04764 | 0 0.04764 | 0 0 0.04764)
New Line.L126  Phases=3   Bus1=b211 Bus2=b212 emergamps=10000   Length=1
~ rmatrix = (0.53071 | 0 0.53071 | 0 0 0.53071)
~ xmatrix = (0.27917 | 0 0.27917 | 0 0 0.27917)
New Line.L127  Phases=3   Bus1=b211 Bus2=b214 emergamps=10000   Length=1
~ rmatrix = (0.09755 | 0 0.09755 | 0 0 0.09755)
~ xmatrix = (0.2252 | 0 0.2252 | 0 0 0.2252)
New Line.L128  Phases=3   Bus1=b214 Bus2=b215 emergamps=10000   Length=1
~ rmatrix = (0.11819 | 0 0.11819 | 0 0 0.11819)
~ xmatrix = (0.27283 | 0 0.27283 | 0 0 0.27283)
New Line.L129  Phases=3   Bus1=b214 Bus2=b217 emergamps=10000   Length=1
~ rmatrix = (0.13882 | 0 0.13882 | 0 0 0.13882)
~ xmatrix = (0.32047 | 0 0.32047 | 0 0 0.32047)
New Line.L130  Phases=3   Bus1=b217 Bus2=b218 emergamps=10000   Length=1
~ rmatrix = (0.04315 | 0 0.04315 | 0 0 0.04315)
~ xmatrix = (0.09961 | 0 0.09961 | 0 0 0.09961)
New Line.L131  Phases=3   Bus1=b218 Bus2=b219 emergamps=10000   Length=1
~ rmatrix = (0.09192 | 0 0.09192 | 0 0 0.09192)
~ xmatrix = (0.2122 | 0 0.2122 | 0 0 0.2122)
New Line.L132  Phases=3   Bus1=b219 Bus2=b220 emergamps=10000   Length=1
~ rmatrix = (0.16134 | 0 0.16134 | 0 0 0.16134)
~ xmatrix = (0.37244 | 0 0.37244 | 0 0 0.37244)
New Line.L133  Phases=3   Bus1=b220 Bus2=b221 emergamps=10000   Length=1
~ rmatrix = (0.37832 | 0 0.37832 | 0 0 0.37832)
~ xmatrix = (0.37775 | 0 0.37775 | 0 0 0.37775)
New Line.L134  Phases=3   Bus1=b221 Bus2=b222 emergamps=10000   Length=1
~ rmatrix = (0.39724 | 0 0.39724 | 0 0 0.39724)
~ xmatrix = (0.39664 | 0 0.39664 | 0 0 0.39664)
New Line.L135  Phases=3   Bus1=b222 Bus2=b223 emergamps=10000   Length=1
~ rmatrix = (0.2932 | 0 0.2932 | 0 0 0.2932)
~ xmatrix = (0.29276 | 0 0.29276 | 0 0 0.29276)
New Line.L136  Phases=3   Bus1=b7 Bus2=b86 emergamps=10000   Length=1
~ rmatrix = (0.13132 | 0 0.13132 | 0 0 0.13132)
~ xmatrix = (0.30315 | 0 0.30315 | 0 0 0.30315)
New Line.L137  Phases=3   Bus1=b10 Bus2=b32 emergamps=10000   Length=1
~ rmatrix = (0.26536 | 0 0.26536 | 0 0 0.26536)
~ xmatrix = (0.13958 | 0 0.13958 | 0 0 0.13958)
New Line.L138  Phases=3   Bus1=b20 Bus2=b130 emergamps=10000   Length=1
~ rmatrix = (0.14187 | 0 0.14187 | 0 0 0.14187)
~ xmatrix = (0.14166 | 0 0.14166 | 0 0 0.14166)
New Line.L139  Phases=3   Bus1=b46 Bus2=b223 emergamps=10000   Length=1
~ rmatrix = (0.08512 | 0 0.08512 | 0 0 0.08512)
~ xmatrix = (0.08499 | 0 0.08499 | 0 0 0.08499)
New Line.L140  Phases=3   Bus1=b33 Bus2=b61 emergamps=10000   Length=1
~ rmatrix = (0.04502 | 0 0.04502 | 0 0 0.04502)
~ xmatrix = (0.10394 | 0 0.10394 | 0 0 0.10394)
New Line.L141  Phases=3   Bus1=b59 Bus2=b145 emergamps=10000   Length=1
~ rmatrix = (0.14187 | 0 0.14187 | 0 0 0.14187)
~ xmatrix = (0.14166 | 0 0.14166 | 0 0 0.14166)
New Line.L142  Phases=3   Bus1=b65 Bus2=b147 emergamps=10000   Length=1
~ rmatrix = (0.14187 | 0 0.14187 | 0 0 0.14187)
~ xmatrix = (0.14166 | 0 0.14166 | 0 0 0.14166)
New Line.L143  Phases=3   Bus1=b73 Bus2=b206 emergamps=10000   Length=1
~ rmatrix = (0.0394 | 0 0.0394 | 0 0 0.0394)
~ xmatrix = (0.09094 | 0 0.09094 | 0 0 0.09094)
New Line.L144  Phases=3   Bus1=b78 Bus2=b125 emergamps=10000   Length=1
~ rmatrix = (0.12944 | 0 0.12944 | 0 0 0.12944)
~ xmatrix = (0.29882 | 0 0.29882 | 0 0 0.29882)
New Line.L145  Phases=3   Bus1=b125 Bus2=b219 emergamps=10000   Length=1
~ rmatrix = (0.01688 | 0 0.01688 | 0 0 0.01688)
~ xmatrix = (0.03898 | 0 0.03898 | 0 0 0.03898)
New Line.L146  Phases=3   Bus1=b131 Bus2=b223 emergamps=10000   Length=1
~ rmatrix = (0.3317 | 0 0.3317 | 0 0 0.3317)
~ xmatrix = (0.17448 | 0 0.17448 | 0 0 0.17448)
New Line.L147  Phases=3   Bus1=b139 Bus2=b154 emergamps=10000   Length=1
~ rmatrix = (0.14187 | 0 0.14187 | 0 0 0.14187)
~ xmatrix = (0.14166 | 0 0.14166 | 0 0 0.14166)
New Line.L148  Phases=3   Bus1=b138 Bus2=b217 emergamps=10000   Length=1
~ rmatrix = (0.07692 | 0 0.07692 | 0 0 0.07692)
~ xmatrix = (0.17756 | 0 0.17756 | 0 0 0.17756)
New Line.L149  Phases=3   Bus1=b138 Bus2=b153 emergamps=10000   Length=1
~ rmatrix = (0.07692 | 0 0.07692 | 0 0 0.07692)
~ xmatrix = (0.17756 | 0 0.17756 | 0 0 0.17756)
New Line.L150  Phases=3   Bus1=b141 Bus2=b154 emergamps=10000   Length=1
~ rmatrix = (0.07692 | 0 0.07692 | 0 0 0.07692)
~ xmatrix = (0.17756 | 0 0.17756 | 0 0 0.17756)
New Line.L151  Phases=3   Bus1=b141 Bus2=b220 emergamps=10000   Length=1
~ rmatrix = (0.07692 | 0 0.07692 | 0 0 0.07692)
~ xmatrix = (0.17756 | 0 0.17756 | 0 0 0.17756)
New Line.L152  Phases=3   Bus1=b145 Bus2=b206 emergamps=10000   Length=1
~ rmatrix = (0.26482 | 0 0.26482 | 0 0 0.26482)
~ xmatrix = (0.26443 | 0 0.26443 | 0 0 0.26443)
New Line.L153  Phases=3   Bus1=b160 Bus2=b56 emergamps=10000   Length=1
~ rmatrix = (0.49696 | 0 0.49696 | 0 0 0.49696)
~ xmatrix = (0.64567 | 0 0.64567 | 0 0 0.64567)
New Line.L154  Phases=3   Bus1=b212 Bus2=b122 emergamps=10000   Length=1
~ rmatrix = (0.17059 | 0 0.17059 | 0 0 0.17059)
~ xmatrix = (0.08973 | 0 0.08973 | 0 0 0.08973)
New Line.L155  Phases=3   Bus1=b215 Bus2=b123 emergamps=10000   Length=1
~ rmatrix = (0.05253 | 0 0.05253 | 0 0 0.05253)
~ xmatrix = (0.12126 | 0 0.12126 | 0 0 0.12126)
New Line.L156  Phases=3   Bus1=b223 Bus2=b147 emergamps=10000   Length=1
~ rmatrix = (0.2932 | 0 0.2932 | 0 0 0.2932)
~ xmatrix = (0.29276 | 0 0.29276 | 0 0 0.29276)

New Load.LoadB2 Bus1=b2   Phases=3  Vmaxpu=1.1  Vminpu=0.9  kV=13.8  kW=47.78  kVAR=19.009
New Load.LoadB3 Bus1=b3   Phases=3  Vmaxpu=1.1  Vminpu=0.9  kV=13.8  kW=42.551  kVAR=16.929
New Load.LoadB4 Bus1=b4   Phases=3  Vmaxpu=1.1  Vminpu=0.9  kV=13.8  kW=87.022  kVAR=34.622
New Load.LoadB5 Bus1=b5   Phases=3  Vmaxpu=1.1  Vminpu=0.9  kV=13.8  kW=311.31  kVAR=123.855
New Load.LoadB6 Bus1=b6   Phases=3  Vmaxpu=1.1  Vminpu=0.9  kV=13.8  kW=148.869  kVAR=59.228
New Load.LoadB7 Bus1=b7   Phases=3  Vmaxpu=1.1  Vminpu=0.9  kV=13.8  kW=238.672  kVAR=94.956
New Load.LoadB9 Bus1=b9   Phases=3  Vmaxpu=1.1  Vminpu=0.9  kV=13.8  kW=62.299  kVAR=24.786
New Load.LoadB10 Bus1=b10   Phases=3  Vmaxpu=1.1  Vminpu=0.9  kV=13.8  kW=124.598  kVAR=49.571
New Load.LoadB12 Bus1=b12   Phases=3  Vmaxpu=1.1  Vminpu=0.9  kV=13.8  kW=140.175  kVAR=55.768
New Load.LoadB13 Bus1=b13   Phases=3  Vmaxpu=1.1  Vminpu=0.9  kV=13.8  kW=116.813  kVAR=46.474
New Load.LoadB15 Bus1=b15   Phases=3  Vmaxpu=1.1  Vminpu=0.9  kV=13.8  kW=249.203  kVAR=99.145
New Load.LoadB17 Bus1=b17   Phases=3  Vmaxpu=1.1  Vminpu=0.9  kV=13.8  kW=291.447  kVAR=115.952
New Load.LoadB18 Bus1=b18   Phases=3  Vmaxpu=1.1  Vminpu=0.9  kV=13.8  kW=303.72  kVAR=120.835
New Load.LoadB20 Bus1=b20   Phases=3  Vmaxpu=1.1  Vminpu=0.9  kV=13.8  kW=215.396  kVAR=85.695
New Load.LoadB21 Bus1=b21   Phases=3  Vmaxpu=1.1  Vminpu=0.9  kV=13.8  kW=198.586  kVAR=79.007
New Load.LoadB27 Bus1=b27   Phases=3  Vmaxpu=1.1  Vminpu=0.9  kV=13.8  kW=30.127  kVAR=14.729
New Load.LoadB28 Bus1=b28   Phases=3  Vmaxpu=1.1  Vminpu=0.9  kV=13.8  kW=230.972  kVAR=112.92
New Load.LoadB29 Bus1=b29   Phases=3  Vmaxpu=1.1  Vminpu=0.9  kV=13.8  kW=60.256  kVAR=29.458
New Load.LoadB30 Bus1=b30   Phases=3  Vmaxpu=1.1  Vminpu=0.9  kV=13.8  kW=230.972  kVAR=112.92
New Load.LoadB32 Bus1=b32   Phases=3  Vmaxpu=1.1  Vminpu=0.9  kV=13.8  kW=120.507  kVAR=58.915
New Load.LoadB34 Bus1=b34   Phases=3  Vmaxpu=1.1  Vminpu=0.9  kV=13.8  kW=56.981  kVAR=27.857
New Load.LoadB35 Bus1=b35   Phases=3  Vmaxpu=1.1  Vminpu=0.9  kV=13.8  kW=364.665  kVAR=178.281
New Load.LoadB37 Bus1=b37   Phases=3  Vmaxpu=1.1  Vminpu=0.9  kV=13.8  kW=124.647  kVAR=60.939
New Load.LoadB38 Bus1=b38   Phases=3  Vmaxpu=1.1  Vminpu=0.9  kV=13.8  kW=56.981  kVAR=27.857
New Load.LoadB40 Bus1=b40   Phases=3  Vmaxpu=1.1  Vminpu=0.9  kV=13.8  kW=85.473  kVAR=41.787
New Load.LoadB42 Bus1=b42   Phases=3  Vmaxpu=1.1  Vminpu=0.9  kV=13.8  kW=396.735  kVAR=193.96
New Load.LoadB44 Bus1=b44   Phases=3  Vmaxpu=1.1  Vminpu=0.9  kV=13.8  kW=181.152  kVAR=88.563
New Load.LoadB45 Bus1=b45   Phases=3  Vmaxpu=1.1  Vminpu=0.9  kV=13.8  kW=242.172  kVAR=118.395
New Load.LoadB46 Bus1=b46   Phases=3  Vmaxpu=1.1  Vminpu=0.9  kV=13.8  kW=75.316  kVAR=36.821
New Load.LoadB49 Bus1=b49   Phases=3  Vmaxpu=1.1  Vminpu=0.9  kV=13.8  kW=1.254  kVAR=0.531